
---------- Begin Simulation Statistics ----------
simSeconds                                   0.000020                       # Number of seconds simulated (Second)
simTicks                                     20290500                       # Number of ticks simulated (Tick)
finalTick                                    20290500                       # Number of ticks from beginning of simulation (restored from checkpoints and never reset) (Tick)
simFreq                                  1000000000000                       # The number of ticks per simulated second ((Tick/Second))
hostSeconds                                      0.03                       # Real time elapsed on the host (Second)
hostTickRate                                791279249                       # The number of ticks simulated per host second (ticks/s) ((Tick/Second))
hostMemory                                     659464                       # Number of bytes of host memory used (Byte)
simInsts                                         1000                       # Number of instructions simulated (Count)
simOps                                           2203                       # Number of ops (including micro ops) simulated (Count)
hostInstRate                                    38826                       # Simulator instruction rate (inst/s) ((Count/Second))
hostOpRate                                      85475                       # Simulator op (including micro ops) rate (op/s) ((Count/Second))
system.clk_domain.clock                          1000                       # Clock period in ticks (Tick)
system.cpu.numCycles                            40581                       # Number of cpu cycles simulated (Cycle)
system.cpu.numWorkItemsStarted                      0                       # Number of work items this cpu started (Count)
system.cpu.numWorkItemsCompleted                    0                       # Number of work items this cpu completed (Count)
system.cpu.branchPred.lookups                     262                       # Number of BP lookups (Count)
system.cpu.branchPred.condPredicted               171                       # Number of conditional branches predicted (Count)
system.cpu.branchPred.condIncorrect               129                       # Number of conditional branches incorrect (Count)
system.cpu.branchPred.BTBLookups                   59                       # Number of BTB lookups (Count)
system.cpu.branchPred.BTBHits                      15                       # Number of BTB hits (Count)
system.cpu.branchPred.BTBHitRatio            0.254237                       # BTB Hit Ratio (Ratio)
system.cpu.branchPred.RASUsed                      25                       # Number of times the RAS was used to get a target. (Count)
system.cpu.branchPred.RASIncorrect                  0                       # Number of incorrect RAS predictions. (Count)
system.cpu.branchPred.indirectLookups              30                       # Number of indirect predictor lookups. (Count)
system.cpu.branchPred.indirectHits                  1                       # Number of indirect target hits. (Count)
system.cpu.branchPred.indirectMisses               29                       # Number of indirect misses. (Count)
system.cpu.branchPred.indirectMispredicted           30                       # Number of mispredicted indirect branches. (Count)
system.cpu.branchPred.BTBMissPct            74.576271                       # Percent of BTB misses (Ratio)
system.cpu.branchPred.BranchMispredPercent    75.438596                       # Percent of mispredicted branches. (Ratio)
system.cpu.dcache.demandHits::cpu.data            326                       # number of demand (read+write) hits (Count)
system.cpu.dcache.demandHits::total               326                       # number of demand (read+write) hits (Count)
system.cpu.dcache.overallHits::cpu.data           326                       # number of overall hits (Count)
system.cpu.dcache.overallHits::total              326                       # number of overall hits (Count)
system.cpu.dcache.demandMisses::cpu.data           95                       # number of demand (read+write) misses (Count)
system.cpu.dcache.demandMisses::total              95                       # number of demand (read+write) misses (Count)
system.cpu.dcache.overallMisses::cpu.data           95                       # number of overall misses (Count)
system.cpu.dcache.overallMisses::total             95                       # number of overall misses (Count)
system.cpu.dcache.demandMissLatency::cpu.data      7679000                       # number of demand (read+write) miss ticks (Tick)
system.cpu.dcache.demandMissLatency::total      7679000                       # number of demand (read+write) miss ticks (Tick)
system.cpu.dcache.overallMissLatency::cpu.data      7679000                       # number of overall miss ticks (Tick)
system.cpu.dcache.overallMissLatency::total      7679000                       # number of overall miss ticks (Tick)
system.cpu.dcache.demandAccesses::cpu.data          421                       # number of demand (read+write) accesses (Count)
system.cpu.dcache.demandAccesses::total           421                       # number of demand (read+write) accesses (Count)
system.cpu.dcache.overallAccesses::cpu.data          421                       # number of overall (read+write) accesses (Count)
system.cpu.dcache.overallAccesses::total          421                       # number of overall (read+write) accesses (Count)
system.cpu.dcache.demandMissRate::cpu.data     0.225653                       # miss rate for demand accesses (Ratio)
system.cpu.dcache.demandMissRate::total      0.225653                       # miss rate for demand accesses (Ratio)
system.cpu.dcache.overallMissRate::cpu.data     0.225653                       # miss rate for overall accesses (Ratio)
system.cpu.dcache.overallMissRate::total     0.225653                       # miss rate for overall accesses (Ratio)
system.cpu.dcache.demandAvgMissLatency::cpu.data 80831.578947                       # average overall miss latency ((Cycle/Count))
system.cpu.dcache.demandAvgMissLatency::total 80831.578947                       # average overall miss latency ((Cycle/Count))
system.cpu.dcache.overallAvgMissLatency::cpu.data 80831.578947                       # average overall miss latency ((Cycle/Count))
system.cpu.dcache.overallAvgMissLatency::total 80831.578947                       # average overall miss latency ((Cycle/Count))
system.cpu.dcache.blockedCycles::no_mshrs            0                       # number of cycles access was blocked (Cycle)
system.cpu.dcache.blockedCycles::no_targets            0                       # number of cycles access was blocked (Cycle)
system.cpu.dcache.blockedCauses::no_mshrs            0                       # number of times access was blocked (Count)
system.cpu.dcache.blockedCauses::no_targets            0                       # number of times access was blocked (Count)
system.cpu.dcache.avgBlocked::no_mshrs            nan                       # average number of cycles each access was blocked ((Cycle/Count))
system.cpu.dcache.avgBlocked::no_targets          nan                       # average number of cycles each access was blocked ((Cycle/Count))
system.cpu.dcache.writebacks::writebacks            1                       # number of writebacks (Count)
system.cpu.dcache.writebacks::total                 1                       # number of writebacks (Count)
system.cpu.dcache.demandMshrMisses::cpu.data           95                       # number of demand (read+write) MSHR misses (Count)
system.cpu.dcache.demandMshrMisses::total           95                       # number of demand (read+write) MSHR misses (Count)
system.cpu.dcache.overallMshrMisses::cpu.data           95                       # number of overall MSHR misses (Count)
system.cpu.dcache.overallMshrMisses::total           95                       # number of overall MSHR misses (Count)
system.cpu.dcache.demandMshrMissLatency::cpu.data      7584000                       # number of demand (read+write) MSHR miss ticks (Tick)
system.cpu.dcache.demandMshrMissLatency::total      7584000                       # number of demand (read+write) MSHR miss ticks (Tick)
system.cpu.dcache.overallMshrMissLatency::cpu.data      7584000                       # number of overall MSHR miss ticks (Tick)
system.cpu.dcache.overallMshrMissLatency::total      7584000                       # number of overall MSHR miss ticks (Tick)
system.cpu.dcache.demandMshrMissRate::cpu.data     0.225653                       # mshr miss ratio for demand accesses (Ratio)
system.cpu.dcache.demandMshrMissRate::total     0.225653                       # mshr miss ratio for demand accesses (Ratio)
system.cpu.dcache.overallMshrMissRate::cpu.data     0.225653                       # mshr miss ratio for overall accesses (Ratio)
system.cpu.dcache.overallMshrMissRate::total     0.225653                       # mshr miss ratio for overall accesses (Ratio)
system.cpu.dcache.demandAvgMshrMissLatency::cpu.data 79831.578947                       # average overall mshr miss latency ((Cycle/Count))
system.cpu.dcache.demandAvgMshrMissLatency::total 79831.578947                       # average overall mshr miss latency ((Cycle/Count))
system.cpu.dcache.overallAvgMshrMissLatency::cpu.data 79831.578947                       # average overall mshr miss latency ((Cycle/Count))
system.cpu.dcache.overallAvgMshrMissLatency::total 79831.578947                       # average overall mshr miss latency ((Cycle/Count))
system.cpu.dcache.replacements                      3                       # number of replacements (Count)
system.cpu.dcache.ReadReq.hits::cpu.data          190                       # number of ReadReq hits (Count)
system.cpu.dcache.ReadReq.hits::total             190                       # number of ReadReq hits (Count)
system.cpu.dcache.ReadReq.misses::cpu.data           52                       # number of ReadReq misses (Count)
system.cpu.dcache.ReadReq.misses::total            52                       # number of ReadReq misses (Count)
system.cpu.dcache.ReadReq.missLatency::cpu.data      4331000                       # number of ReadReq miss ticks (Tick)
system.cpu.dcache.ReadReq.missLatency::total      4331000                       # number of ReadReq miss ticks (Tick)
system.cpu.dcache.ReadReq.accesses::cpu.data          242                       # number of ReadReq accesses(hits+misses) (Count)
system.cpu.dcache.ReadReq.accesses::total          242                       # number of ReadReq accesses(hits+misses) (Count)
system.cpu.dcache.ReadReq.missRate::cpu.data     0.214876                       # miss rate for ReadReq accesses (Ratio)
system.cpu.dcache.ReadReq.missRate::total     0.214876                       # miss rate for ReadReq accesses (Ratio)
system.cpu.dcache.ReadReq.avgMissLatency::cpu.data 83288.461538                       # average ReadReq miss latency ((Tick/Count))
system.cpu.dcache.ReadReq.avgMissLatency::total 83288.461538                       # average ReadReq miss latency ((Tick/Count))
system.cpu.dcache.ReadReq.mshrMisses::cpu.data           52                       # number of ReadReq MSHR misses (Count)
system.cpu.dcache.ReadReq.mshrMisses::total           52                       # number of ReadReq MSHR misses (Count)
system.cpu.dcache.ReadReq.mshrMissLatency::cpu.data      4279000                       # number of ReadReq MSHR miss ticks (Tick)
system.cpu.dcache.ReadReq.mshrMissLatency::total      4279000                       # number of ReadReq MSHR miss ticks (Tick)
system.cpu.dcache.ReadReq.mshrMissRate::cpu.data     0.214876                       # mshr miss rate for ReadReq accesses (Ratio)
system.cpu.dcache.ReadReq.mshrMissRate::total     0.214876                       # mshr miss rate for ReadReq accesses (Ratio)
system.cpu.dcache.ReadReq.avgMshrMissLatency::cpu.data 82288.461538                       # average ReadReq mshr miss latency ((Tick/Count))
system.cpu.dcache.ReadReq.avgMshrMissLatency::total 82288.461538                       # average ReadReq mshr miss latency ((Tick/Count))
system.cpu.dcache.WriteReq.hits::cpu.data          136                       # number of WriteReq hits (Count)
system.cpu.dcache.WriteReq.hits::total            136                       # number of WriteReq hits (Count)
system.cpu.dcache.WriteReq.misses::cpu.data           43                       # number of WriteReq misses (Count)
system.cpu.dcache.WriteReq.misses::total           43                       # number of WriteReq misses (Count)
system.cpu.dcache.WriteReq.missLatency::cpu.data      3348000                       # number of WriteReq miss ticks (Tick)
system.cpu.dcache.WriteReq.missLatency::total      3348000                       # number of WriteReq miss ticks (Tick)
system.cpu.dcache.WriteReq.accesses::cpu.data          179                       # number of WriteReq accesses(hits+misses) (Count)
system.cpu.dcache.WriteReq.accesses::total          179                       # number of WriteReq accesses(hits+misses) (Count)
system.cpu.dcache.WriteReq.missRate::cpu.data     0.240223                       # miss rate for WriteReq accesses (Ratio)
system.cpu.dcache.WriteReq.missRate::total     0.240223                       # miss rate for WriteReq accesses (Ratio)
system.cpu.dcache.WriteReq.avgMissLatency::cpu.data 77860.465116                       # average WriteReq miss latency ((Tick/Count))
system.cpu.dcache.WriteReq.avgMissLatency::total 77860.465116                       # average WriteReq miss latency ((Tick/Count))
system.cpu.dcache.WriteReq.mshrMisses::cpu.data           43                       # number of WriteReq MSHR misses (Count)
system.cpu.dcache.WriteReq.mshrMisses::total           43                       # number of WriteReq MSHR misses (Count)
system.cpu.dcache.WriteReq.mshrMissLatency::cpu.data      3305000                       # number of WriteReq MSHR miss ticks (Tick)
system.cpu.dcache.WriteReq.mshrMissLatency::total      3305000                       # number of WriteReq MSHR miss ticks (Tick)
system.cpu.dcache.WriteReq.mshrMissRate::cpu.data     0.240223                       # mshr miss rate for WriteReq accesses (Ratio)
system.cpu.dcache.WriteReq.mshrMissRate::total     0.240223                       # mshr miss rate for WriteReq accesses (Ratio)
system.cpu.dcache.WriteReq.avgMshrMissLatency::cpu.data 76860.465116                       # average WriteReq mshr miss latency ((Tick/Count))
system.cpu.dcache.WriteReq.avgMshrMissLatency::total 76860.465116                       # average WriteReq mshr miss latency ((Tick/Count))
system.cpu.dcache.power_state.pwrStateResidencyTicks::UNDEFINED     20290500                       # Cumulative time (in ticks) in various power states (Tick)
system.cpu.dcache.tags.tagsInUse            49.623422                       # Average ticks per tags in use ((Tick/Count))
system.cpu.dcache.tags.totalRefs                  421                       # Total number of references to valid blocks. (Count)
system.cpu.dcache.tags.sampledRefs                 95                       # Sample count of references to valid blocks. (Count)
system.cpu.dcache.tags.avgRefs               4.431579                       # Average number of references to valid blocks. ((Count/Count))
system.cpu.dcache.tags.warmupTick              246500                       # The tick when the warmup percentage was hit. (Tick)
system.cpu.dcache.tags.occupancies::cpu.data    49.623422                       # Average occupied blocks per tick, per requestor ((Count/Tick))
system.cpu.dcache.tags.avgOccs::cpu.data     0.096921                       # Average percentage of cache occupancy ((Ratio/Tick))
system.cpu.dcache.tags.avgOccs::total        0.096921                       # Average percentage of cache occupancy ((Ratio/Tick))
system.cpu.dcache.tags.occupanciesTaskId::1024           92                       # Occupied blocks per task id (Count)
system.cpu.dcache.tags.ageTaskId_1024::0           46                       # Occupied blocks per task id, per block age (Count)
system.cpu.dcache.tags.ageTaskId_1024::1           46                       # Occupied blocks per task id, per block age (Count)
system.cpu.dcache.tags.ratioOccsTaskId::1024     0.179688                       # Ratio of occupied blocks and all blocks, per task id (Ratio)
system.cpu.dcache.tags.tagAccesses                516                       # Number of tag accesses (Count)
system.cpu.dcache.tags.dataAccesses               516                       # Number of data accesses (Count)
system.cpu.dcache.tags.power_state.pwrStateResidencyTicks::UNDEFINED     20290500                       # Cumulative time (in ticks) in various power states (Tick)
system.cpu.dtb_walker_cache.blockedCycles::no_mshrs            0                       # number of cycles access was blocked (Cycle)
system.cpu.dtb_walker_cache.blockedCycles::no_targets            0                       # number of cycles access was blocked (Cycle)
system.cpu.dtb_walker_cache.blockedCauses::no_mshrs            0                       # number of times access was blocked (Count)
system.cpu.dtb_walker_cache.blockedCauses::no_targets            0                       # number of times access was blocked (Count)
system.cpu.dtb_walker_cache.avgBlocked::no_mshrs          nan                       # average number of cycles each access was blocked ((Cycle/Count))
system.cpu.dtb_walker_cache.avgBlocked::no_targets          nan                       # average number of cycles each access was blocked ((Cycle/Count))
system.cpu.dtb_walker_cache.replacements            0                       # number of replacements (Count)
system.cpu.dtb_walker_cache.power_state.pwrStateResidencyTicks::UNDEFINED     20290500                       # Cumulative time (in ticks) in various power states (Tick)
system.cpu.dtb_walker_cache.tags.tagsInUse            0                       # Average ticks per tags in use ((Tick/Count))
system.cpu.dtb_walker_cache.tags.totalRefs            0                       # Total number of references to valid blocks. (Count)
system.cpu.dtb_walker_cache.tags.sampledRefs            0                       # Sample count of references to valid blocks. (Count)
system.cpu.dtb_walker_cache.tags.avgRefs          nan                       # Average number of references to valid blocks. ((Count/Count))
system.cpu.dtb_walker_cache.tags.warmupTick            0                       # The tick when the warmup percentage was hit. (Tick)
system.cpu.dtb_walker_cache.tags.tagAccesses            0                       # Number of tag accesses (Count)
system.cpu.dtb_walker_cache.tags.dataAccesses            0                       # Number of data accesses (Count)
system.cpu.dtb_walker_cache.tags.power_state.pwrStateResidencyTicks::UNDEFINED     20290500                       # Cumulative time (in ticks) in various power states (Tick)
system.cpu.exec_context.thread_0.numInsts         1000                       # Number of instructions committed (Count)
system.cpu.exec_context.thread_0.numOps          2203                       # Number of ops (including micro ops) committed (Count)
system.cpu.exec_context.thread_0.numIntAluAccesses         2173                       # Number of integer alu accesses (Count)
system.cpu.exec_context.thread_0.numFpAluAccesses           28                       # Number of float alu accesses (Count)
system.cpu.exec_context.thread_0.numVecAluAccesses            0                       # Number of vector alu accesses (Count)
system.cpu.exec_context.thread_0.numCallsReturns           57                       # Number of times a function call or return occured (Count)
system.cpu.exec_context.thread_0.numCondCtrlInsts          171                       # Number of instructions that are conditional controls (Count)
system.cpu.exec_context.thread_0.numIntInsts         2173                       # Number of integer instructions (Count)
system.cpu.exec_context.thread_0.numFpInsts           28                       # Number of float instructions (Count)
system.cpu.exec_context.thread_0.numVecInsts            0                       # Number of vector instructions (Count)
system.cpu.exec_context.thread_0.numIntRegReads         3988                       # Number of times the integer registers were read (Count)
system.cpu.exec_context.thread_0.numIntRegWrites         1784                       # Number of times the integer registers were written (Count)
system.cpu.exec_context.thread_0.numFpRegReads           48                       # Number of times the floating registers were read (Count)
system.cpu.exec_context.thread_0.numFpRegWrites           24                       # Number of times the floating registers were written (Count)
system.cpu.exec_context.thread_0.numVecRegReads            0                       # Number of times the vector registers were read (Count)
system.cpu.exec_context.thread_0.numVecRegWrites            0                       # Number of times the vector registers were written (Count)
system.cpu.exec_context.thread_0.numVecPredRegReads            0                       # Number of times the predicate registers were read (Count)
system.cpu.exec_context.thread_0.numVecPredRegWrites            0                       # Number of times the predicate registers were written (Count)
system.cpu.exec_context.thread_0.numCCRegReads         1148                       # Number of times the CC registers were read (Count)
system.cpu.exec_context.thread_0.numCCRegWrites          625                       # Number of times the CC registers were written (Count)
system.cpu.exec_context.thread_0.numMemRefs          421                       # Number of memory refs (Count)
system.cpu.exec_context.thread_0.numLoadInsts          241                       # Number of load instructions (Count)
system.cpu.exec_context.thread_0.numStoreInsts          180                       # Number of store instructions (Count)
system.cpu.exec_context.thread_0.numIdleCycles            0                       # Number of idle cycles (Cycle)
system.cpu.exec_context.thread_0.numBusyCycles        40581                       # Number of busy cycles (Cycle)
system.cpu.exec_context.thread_0.notIdleFraction            1                       # Percentage of non-idle cycles (Ratio)
system.cpu.exec_context.thread_0.idleFraction            0                       # Percentage of idle cycles (Ratio)
system.cpu.exec_context.thread_0.numBranches          262                       # Number of branches fetched (Count)
system.cpu.exec_context.thread_0.numPredictedBranches           41                       # Number of branches predicted as taken (Count)
system.cpu.exec_context.thread_0.numBranchMispred          129                       # Number of branch mispredictions (Count)
system.cpu.exec_context.thread_0.statExecutedInstType::No_OpClass            5      0.23%      0.23% # Class of executed instruction. (Count)
system.cpu.exec_context.thread_0.statExecutedInstType::IntAlu         1734     78.50%     78.72% # Class of executed instruction. (Count)
system.cpu.exec_context.thread_0.statExecutedInstType::IntMult            4      0.18%     78.90% # Class of executed instruction. (Count)
system.cpu.exec_context.thread_0.statExecutedInstType::IntDiv           21      0.95%     79.86% # Class of executed instruction. (Count)
system.cpu.exec_context.thread_0.statExecutedInstType::FloatAdd            0      0.00%     79.86% # Class of executed instruction. (Count)
system.cpu.exec_context.thread_0.statExecutedInstType::FloatCmp            0      0.00%     79.86% # Class of executed instruction. (Count)
system.cpu.exec_context.thread_0.statExecutedInstType::FloatCvt            0      0.00%     79.86% # Class of executed instruction. (Count)
system.cpu.exec_context.thread_0.statExecutedInstType::FloatMult            0      0.00%     79.86% # Class of executed instruction. (Count)
system.cpu.exec_context.thread_0.statExecutedInstType::FloatMultAcc            0      0.00%     79.86% # Class of executed instruction. (Count)
system.cpu.exec_context.thread_0.statExecutedInstType::FloatDiv            0      0.00%     79.86% # Class of executed instruction. (Count)
system.cpu.exec_context.thread_0.statExecutedInstType::FloatMisc            0      0.00%     79.86% # Class of executed instruction. (Count)
system.cpu.exec_context.thread_0.statExecutedInstType::FloatSqrt            0      0.00%     79.86% # Class of executed instruction. (Count)
system.cpu.exec_context.thread_0.statExecutedInstType::SimdAdd            0      0.00%     79.86% # Class of executed instruction. (Count)
system.cpu.exec_context.thread_0.statExecutedInstType::SimdAddAcc            0      0.00%     79.86% # Class of executed instruction. (Count)
system.cpu.exec_context.thread_0.statExecutedInstType::SimdAlu           16      0.72%     80.58% # Class of executed instruction. (Count)
system.cpu.exec_context.thread_0.statExecutedInstType::SimdCmp            0      0.00%     80.58% # Class of executed instruction. (Count)
system.cpu.exec_context.thread_0.statExecutedInstType::SimdCvt            4      0.18%     80.76% # Class of executed instruction. (Count)
system.cpu.exec_context.thread_0.statExecutedInstType::SimdMisc            4      0.18%     80.94% # Class of executed instruction. (Count)
system.cpu.exec_context.thread_0.statExecutedInstType::SimdMult            0      0.00%     80.94% # Class of executed instruction. (Count)
system.cpu.exec_context.thread_0.statExecutedInstType::SimdMultAcc            0      0.00%     80.94% # Class of executed instruction. (Count)
system.cpu.exec_context.thread_0.statExecutedInstType::SimdShift            0      0.00%     80.94% # Class of executed instruction. (Count)
system.cpu.exec_context.thread_0.statExecutedInstType::SimdShiftAcc            0      0.00%     80.94% # Class of executed instruction. (Count)
system.cpu.exec_context.thread_0.statExecutedInstType::SimdDiv            0      0.00%     80.94% # Class of executed instruction. (Count)
system.cpu.exec_context.thread_0.statExecutedInstType::SimdSqrt            0      0.00%     80.94% # Class of executed instruction. (Count)
system.cpu.exec_context.thread_0.statExecutedInstType::SimdFloatAdd            0      0.00%     80.94% # Class of executed instruction. (Count)
system.cpu.exec_context.thread_0.statExecutedInstType::SimdFloatAlu            0      0.00%     80.94% # Class of executed instruction. (Count)
system.cpu.exec_context.thread_0.statExecutedInstType::SimdFloatCmp            0      0.00%     80.94% # Class of executed instruction. (Count)
system.cpu.exec_context.thread_0.statExecutedInstType::SimdFloatCvt            0      0.00%     80.94% # Class of executed instruction. (Count)
system.cpu.exec_context.thread_0.statExecutedInstType::SimdFloatDiv            0      0.00%     80.94% # Class of executed instruction. (Count)
system.cpu.exec_context.thread_0.statExecutedInstType::SimdFloatMisc            0      0.00%     80.94% # Class of executed instruction. (Count)
system.cpu.exec_context.thread_0.statExecutedInstType::SimdFloatMult            0      0.00%     80.94% # Class of executed instruction. (Count)
system.cpu.exec_context.thread_0.statExecutedInstType::SimdFloatMultAcc            0      0.00%     80.94% # Class of executed instruction. (Count)
system.cpu.exec_context.thread_0.statExecutedInstType::SimdFloatSqrt            0      0.00%     80.94% # Class of executed instruction. (Count)
system.cpu.exec_context.thread_0.statExecutedInstType::SimdReduceAdd            0      0.00%     80.94% # Class of executed instruction. (Count)
system.cpu.exec_context.thread_0.statExecutedInstType::SimdReduceAlu            0      0.00%     80.94% # Class of executed instruction. (Count)
system.cpu.exec_context.thread_0.statExecutedInstType::SimdReduceCmp            0      0.00%     80.94% # Class of executed instruction. (Count)
system.cpu.exec_context.thread_0.statExecutedInstType::SimdFloatReduceAdd            0      0.00%     80.94% # Class of executed instruction. (Count)
system.cpu.exec_context.thread_0.statExecutedInstType::SimdFloatReduceCmp            0      0.00%     80.94% # Class of executed instruction. (Count)
system.cpu.exec_context.thread_0.statExecutedInstType::SimdAes            0      0.00%     80.94% # Class of executed instruction. (Count)
system.cpu.exec_context.thread_0.statExecutedInstType::SimdAesMix            0      0.00%     80.94% # Class of executed instruction. (Count)
system.cpu.exec_context.thread_0.statExecutedInstType::SimdSha1Hash            0      0.00%     80.94% # Class of executed instruction. (Count)
system.cpu.exec_context.thread_0.statExecutedInstType::SimdSha1Hash2            0      0.00%     80.94% # Class of executed instruction. (Count)
system.cpu.exec_context.thread_0.statExecutedInstType::SimdSha256Hash            0      0.00%     80.94% # Class of executed instruction. (Count)
system.cpu.exec_context.thread_0.statExecutedInstType::SimdSha256Hash2            0      0.00%     80.94% # Class of executed instruction. (Count)
system.cpu.exec_context.thread_0.statExecutedInstType::SimdShaSigma2            0      0.00%     80.94% # Class of executed instruction. (Count)
system.cpu.exec_context.thread_0.statExecutedInstType::SimdShaSigma3            0      0.00%     80.94% # Class of executed instruction. (Count)
system.cpu.exec_context.thread_0.statExecutedInstType::SimdPredAlu            0      0.00%     80.94% # Class of executed instruction. (Count)
system.cpu.exec_context.thread_0.statExecutedInstType::MemRead          237     10.73%     91.67% # Class of executed instruction. (Count)
system.cpu.exec_context.thread_0.statExecutedInstType::MemWrite          180      8.15%     99.82% # Class of executed instruction. (Count)
system.cpu.exec_context.thread_0.statExecutedInstType::FloatMemRead            4      0.18%    100.00% # Class of executed instruction. (Count)
system.cpu.exec_context.thread_0.statExecutedInstType::FloatMemWrite            0      0.00%    100.00% # Class of executed instruction. (Count)
system.cpu.exec_context.thread_0.statExecutedInstType::IprAccess            0      0.00%    100.00% # Class of executed instruction. (Count)
system.cpu.exec_context.thread_0.statExecutedInstType::InstPrefetch            0      0.00%    100.00% # Class of executed instruction. (Count)
system.cpu.exec_context.thread_0.statExecutedInstType::total         2209                       # Class of executed instruction. (Count)
system.cpu.icache.demandHits::cpu.inst           1213                       # number of demand (read+write) hits (Count)
system.cpu.icache.demandHits::total              1213                       # number of demand (read+write) hits (Count)
system.cpu.icache.overallHits::cpu.inst          1213                       # number of overall hits (Count)
system.cpu.icache.overallHits::total             1213                       # number of overall hits (Count)
system.cpu.icache.demandMisses::cpu.inst          142                       # number of demand (read+write) misses (Count)
system.cpu.icache.demandMisses::total             142                       # number of demand (read+write) misses (Count)
system.cpu.icache.overallMisses::cpu.inst          142                       # number of overall misses (Count)
system.cpu.icache.overallMisses::total            142                       # number of overall misses (Count)
system.cpu.icache.demandMissLatency::cpu.inst     11074500                       # number of demand (read+write) miss ticks (Tick)
system.cpu.icache.demandMissLatency::total     11074500                       # number of demand (read+write) miss ticks (Tick)
system.cpu.icache.overallMissLatency::cpu.inst     11074500                       # number of overall miss ticks (Tick)
system.cpu.icache.overallMissLatency::total     11074500                       # number of overall miss ticks (Tick)
system.cpu.icache.demandAccesses::cpu.inst         1355                       # number of demand (read+write) accesses (Count)
system.cpu.icache.demandAccesses::total          1355                       # number of demand (read+write) accesses (Count)
system.cpu.icache.overallAccesses::cpu.inst         1355                       # number of overall (read+write) accesses (Count)
system.cpu.icache.overallAccesses::total         1355                       # number of overall (read+write) accesses (Count)
system.cpu.icache.demandMissRate::cpu.inst     0.104797                       # miss rate for demand accesses (Ratio)
system.cpu.icache.demandMissRate::total      0.104797                       # miss rate for demand accesses (Ratio)
system.cpu.icache.overallMissRate::cpu.inst     0.104797                       # miss rate for overall accesses (Ratio)
system.cpu.icache.overallMissRate::total     0.104797                       # miss rate for overall accesses (Ratio)
system.cpu.icache.demandAvgMissLatency::cpu.inst 77989.436620                       # average overall miss latency ((Cycle/Count))
system.cpu.icache.demandAvgMissLatency::total 77989.436620                       # average overall miss latency ((Cycle/Count))
system.cpu.icache.overallAvgMissLatency::cpu.inst 77989.436620                       # average overall miss latency ((Cycle/Count))
system.cpu.icache.overallAvgMissLatency::total 77989.436620                       # average overall miss latency ((Cycle/Count))
system.cpu.icache.blockedCycles::no_mshrs            0                       # number of cycles access was blocked (Cycle)
system.cpu.icache.blockedCycles::no_targets            0                       # number of cycles access was blocked (Cycle)
system.cpu.icache.blockedCauses::no_mshrs            0                       # number of times access was blocked (Count)
system.cpu.icache.blockedCauses::no_targets            0                       # number of times access was blocked (Count)
system.cpu.icache.avgBlocked::no_mshrs            nan                       # average number of cycles each access was blocked ((Cycle/Count))
system.cpu.icache.avgBlocked::no_targets          nan                       # average number of cycles each access was blocked ((Cycle/Count))
system.cpu.icache.demandMshrMisses::cpu.inst          142                       # number of demand (read+write) MSHR misses (Count)
system.cpu.icache.demandMshrMisses::total          142                       # number of demand (read+write) MSHR misses (Count)
system.cpu.icache.overallMshrMisses::cpu.inst          142                       # number of overall MSHR misses (Count)
system.cpu.icache.overallMshrMisses::total          142                       # number of overall MSHR misses (Count)
system.cpu.icache.demandMshrMissLatency::cpu.inst     10932500                       # number of demand (read+write) MSHR miss ticks (Tick)
system.cpu.icache.demandMshrMissLatency::total     10932500                       # number of demand (read+write) MSHR miss ticks (Tick)
system.cpu.icache.overallMshrMissLatency::cpu.inst     10932500                       # number of overall MSHR miss ticks (Tick)
system.cpu.icache.overallMshrMissLatency::total     10932500                       # number of overall MSHR miss ticks (Tick)
system.cpu.icache.demandMshrMissRate::cpu.inst     0.104797                       # mshr miss ratio for demand accesses (Ratio)
system.cpu.icache.demandMshrMissRate::total     0.104797                       # mshr miss ratio for demand accesses (Ratio)
system.cpu.icache.overallMshrMissRate::cpu.inst     0.104797                       # mshr miss ratio for overall accesses (Ratio)
system.cpu.icache.overallMshrMissRate::total     0.104797                       # mshr miss ratio for overall accesses (Ratio)
system.cpu.icache.demandAvgMshrMissLatency::cpu.inst 76989.436620                       # average overall mshr miss latency ((Cycle/Count))
system.cpu.icache.demandAvgMshrMissLatency::total 76989.436620                       # average overall mshr miss latency ((Cycle/Count))
system.cpu.icache.overallAvgMshrMissLatency::cpu.inst 76989.436620                       # average overall mshr miss latency ((Cycle/Count))
system.cpu.icache.overallAvgMshrMissLatency::total 76989.436620                       # average overall mshr miss latency ((Cycle/Count))
system.cpu.icache.replacements                      0                       # number of replacements (Count)
system.cpu.icache.ReadReq.hits::cpu.inst         1213                       # number of ReadReq hits (Count)
system.cpu.icache.ReadReq.hits::total            1213                       # number of ReadReq hits (Count)
system.cpu.icache.ReadReq.misses::cpu.inst          142                       # number of ReadReq misses (Count)
system.cpu.icache.ReadReq.misses::total           142                       # number of ReadReq misses (Count)
system.cpu.icache.ReadReq.missLatency::cpu.inst     11074500                       # number of ReadReq miss ticks (Tick)
system.cpu.icache.ReadReq.missLatency::total     11074500                       # number of ReadReq miss ticks (Tick)
system.cpu.icache.ReadReq.accesses::cpu.inst         1355                       # number of ReadReq accesses(hits+misses) (Count)
system.cpu.icache.ReadReq.accesses::total         1355                       # number of ReadReq accesses(hits+misses) (Count)
system.cpu.icache.ReadReq.missRate::cpu.inst     0.104797                       # miss rate for ReadReq accesses (Ratio)
system.cpu.icache.ReadReq.missRate::total     0.104797                       # miss rate for ReadReq accesses (Ratio)
system.cpu.icache.ReadReq.avgMissLatency::cpu.inst 77989.436620                       # average ReadReq miss latency ((Tick/Count))
system.cpu.icache.ReadReq.avgMissLatency::total 77989.436620                       # average ReadReq miss latency ((Tick/Count))
system.cpu.icache.ReadReq.mshrMisses::cpu.inst          142                       # number of ReadReq MSHR misses (Count)
system.cpu.icache.ReadReq.mshrMisses::total          142                       # number of ReadReq MSHR misses (Count)
system.cpu.icache.ReadReq.mshrMissLatency::cpu.inst     10932500                       # number of ReadReq MSHR miss ticks (Tick)
system.cpu.icache.ReadReq.mshrMissLatency::total     10932500                       # number of ReadReq MSHR miss ticks (Tick)
system.cpu.icache.ReadReq.mshrMissRate::cpu.inst     0.104797                       # mshr miss rate for ReadReq accesses (Ratio)
system.cpu.icache.ReadReq.mshrMissRate::total     0.104797                       # mshr miss rate for ReadReq accesses (Ratio)
system.cpu.icache.ReadReq.avgMshrMissLatency::cpu.inst 76989.436620                       # average ReadReq mshr miss latency ((Tick/Count))
system.cpu.icache.ReadReq.avgMshrMissLatency::total 76989.436620                       # average ReadReq mshr miss latency ((Tick/Count))
system.cpu.icache.power_state.pwrStateResidencyTicks::UNDEFINED     20290500                       # Cumulative time (in ticks) in various power states (Tick)
system.cpu.icache.tags.tagsInUse            67.439495                       # Average ticks per tags in use ((Tick/Count))
system.cpu.icache.tags.totalRefs                 1355                       # Total number of references to valid blocks. (Count)
system.cpu.icache.tags.sampledRefs                142                       # Sample count of references to valid blocks. (Count)
system.cpu.icache.tags.avgRefs               9.542254                       # Average number of references to valid blocks. ((Count/Count))
system.cpu.icache.tags.warmupTick               87500                       # The tick when the warmup percentage was hit. (Tick)
system.cpu.icache.tags.occupancies::cpu.inst    67.439495                       # Average occupied blocks per tick, per requestor ((Count/Tick))
system.cpu.icache.tags.avgOccs::cpu.inst     0.016465                       # Average percentage of cache occupancy ((Ratio/Tick))
system.cpu.icache.tags.avgOccs::total        0.016465                       # Average percentage of cache occupancy ((Ratio/Tick))
system.cpu.icache.tags.occupanciesTaskId::1024          142                       # Occupied blocks per task id (Count)
system.cpu.icache.tags.ageTaskId_1024::0           72                       # Occupied blocks per task id, per block age (Count)
system.cpu.icache.tags.ageTaskId_1024::1           70                       # Occupied blocks per task id, per block age (Count)
system.cpu.icache.tags.ratioOccsTaskId::1024     0.034668                       # Ratio of occupied blocks and all blocks, per task id (Ratio)
system.cpu.icache.tags.tagAccesses               1497                       # Number of tag accesses (Count)
system.cpu.icache.tags.dataAccesses              1497                       # Number of data accesses (Count)
system.cpu.icache.tags.power_state.pwrStateResidencyTicks::UNDEFINED     20290500                       # Cumulative time (in ticks) in various power states (Tick)
system.cpu.interrupts.clk_domain.clock           8000                       # Clock period in ticks (Tick)
system.cpu.itb_walker_cache.blockedCycles::no_mshrs            0                       # number of cycles access was blocked (Cycle)
system.cpu.itb_walker_cache.blockedCycles::no_targets            0                       # number of cycles access was blocked (Cycle)
system.cpu.itb_walker_cache.blockedCauses::no_mshrs            0                       # number of times access was blocked (Count)
system.cpu.itb_walker_cache.blockedCauses::no_targets            0                       # number of times access was blocked (Count)
system.cpu.itb_walker_cache.avgBlocked::no_mshrs          nan                       # average number of cycles each access was blocked ((Cycle/Count))
system.cpu.itb_walker_cache.avgBlocked::no_targets          nan                       # average number of cycles each access was blocked ((Cycle/Count))
system.cpu.itb_walker_cache.replacements            0                       # number of replacements (Count)
system.cpu.itb_walker_cache.power_state.pwrStateResidencyTicks::UNDEFINED     20290500                       # Cumulative time (in ticks) in various power states (Tick)
system.cpu.itb_walker_cache.tags.tagsInUse            0                       # Average ticks per tags in use ((Tick/Count))
system.cpu.itb_walker_cache.tags.totalRefs            0                       # Total number of references to valid blocks. (Count)
system.cpu.itb_walker_cache.tags.sampledRefs            0                       # Sample count of references to valid blocks. (Count)
system.cpu.itb_walker_cache.tags.avgRefs          nan                       # Average number of references to valid blocks. ((Count/Count))
system.cpu.itb_walker_cache.tags.warmupTick            0                       # The tick when the warmup percentage was hit. (Tick)
system.cpu.itb_walker_cache.tags.tagAccesses            0                       # Number of tag accesses (Count)
system.cpu.itb_walker_cache.tags.dataAccesses            0                       # Number of data accesses (Count)
system.cpu.itb_walker_cache.tags.power_state.pwrStateResidencyTicks::UNDEFINED     20290500                       # Cumulative time (in ticks) in various power states (Tick)
system.cpu.mmu.dtb.rdAccesses                     242                       # TLB accesses on read requests (Count)
system.cpu.mmu.dtb.wrAccesses                     180                       # TLB accesses on write requests (Count)
system.cpu.mmu.dtb.rdMisses                         7                       # TLB misses on read requests (Count)
system.cpu.mmu.dtb.wrMisses                         7                       # TLB misses on write requests (Count)
system.cpu.mmu.dtb.walker.power_state.pwrStateResidencyTicks::UNDEFINED     20290500                       # Cumulative time (in ticks) in various power states (Tick)
system.cpu.mmu.itb.rdAccesses                       0                       # TLB accesses on read requests (Count)
system.cpu.mmu.itb.wrAccesses                    1355                       # TLB accesses on write requests (Count)
system.cpu.mmu.itb.rdMisses                         0                       # TLB misses on read requests (Count)
system.cpu.mmu.itb.wrMisses                        19                       # TLB misses on write requests (Count)
system.cpu.mmu.itb.walker.power_state.pwrStateResidencyTicks::UNDEFINED     20290500                       # Cumulative time (in ticks) in various power states (Tick)
system.cpu.power_state.pwrStateResidencyTicks::ON     20290500                       # Cumulative time (in ticks) in various power states (Tick)
system.cpu.thread_0.numInsts                        0                       # Number of Instructions committed (Count)
system.cpu.thread_0.numOps                          0                       # Number of Ops committed (Count)
system.cpu.thread_0.numMemRefs                      0                       # Number of Memory References (Count)
system.cpu.workload.numSyscalls                     5                       # Number of system calls (Count)
system.cpu_clk_domain.clock                       500                       # Clock period in ticks (Tick)
system.cpu_voltage_domain.voltage                   1                       # Voltage in Volts (Volt)
system.l2.demandMisses::cpu.inst                  142                       # number of demand (read+write) misses (Count)
system.l2.demandMisses::cpu.data                   95                       # number of demand (read+write) misses (Count)
system.l2.demandMisses::total                     237                       # number of demand (read+write) misses (Count)
system.l2.overallMisses::cpu.inst                 142                       # number of overall misses (Count)
system.l2.overallMisses::cpu.data                  95                       # number of overall misses (Count)
system.l2.overallMisses::total                    237                       # number of overall misses (Count)
system.l2.demandMissLatency::cpu.inst        10719500                       # number of demand (read+write) miss ticks (Tick)
system.l2.demandMissLatency::cpu.data         7441500                       # number of demand (read+write) miss ticks (Tick)
system.l2.demandMissLatency::total           18161000                       # number of demand (read+write) miss ticks (Tick)
system.l2.overallMissLatency::cpu.inst       10719500                       # number of overall miss ticks (Tick)
system.l2.overallMissLatency::cpu.data        7441500                       # number of overall miss ticks (Tick)
system.l2.overallMissLatency::total          18161000                       # number of overall miss ticks (Tick)
system.l2.demandAccesses::cpu.inst                142                       # number of demand (read+write) accesses (Count)
system.l2.demandAccesses::cpu.data                 95                       # number of demand (read+write) accesses (Count)
system.l2.demandAccesses::total                   237                       # number of demand (read+write) accesses (Count)
system.l2.overallAccesses::cpu.inst               142                       # number of overall (read+write) accesses (Count)
system.l2.overallAccesses::cpu.data                95                       # number of overall (read+write) accesses (Count)
system.l2.overallAccesses::total                  237                       # number of overall (read+write) accesses (Count)
system.l2.demandMissRate::cpu.inst                  1                       # miss rate for demand accesses (Ratio)
system.l2.demandMissRate::cpu.data                  1                       # miss rate for demand accesses (Ratio)
system.l2.demandMissRate::total                     1                       # miss rate for demand accesses (Ratio)
system.l2.overallMissRate::cpu.inst                 1                       # miss rate for overall accesses (Ratio)
system.l2.overallMissRate::cpu.data                 1                       # miss rate for overall accesses (Ratio)
system.l2.overallMissRate::total                    0.897554                       # miss rate for overall accesses (Ratio)
system.l2.demandAvgMissLatency::cpu.inst 75489.436620                       # average overall miss latency ((Cycle/Count))
system.l2.demandAvgMissLatency::cpu.data 78331.578947                       # average overall miss latency ((Cycle/Count))
system.l2.demandAvgMissLatency::total    76628.691983                       # average overall miss latency ((Cycle/Count))
system.l2.overallAvgMissLatency::cpu.inst 75489.436620                       # average overall miss latency ((Cycle/Count))
system.l2.overallAvgMissLatency::cpu.data 78331.578947                       # average overall miss latency ((Cycle/Count))
system.l2.overallAvgMissLatency::total   76628.691983                       # average overall miss latency ((Cycle/Count))
system.l2.blockedCycles::no_mshrs                   0                       # number of cycles access was blocked (Cycle)
system.l2.blockedCycles::no_targets                 0                       # number of cycles access was blocked (Cycle)
system.l2.blockedCauses::no_mshrs                   0                       # number of times access was blocked (Count)
system.l2.blockedCauses::no_targets                 0                       # number of times access was blocked (Count)
system.l2.avgBlocked::no_mshrs                    nan                       # average number of cycles each access was blocked ((Cycle/Count))
system.l2.avgBlocked::no_targets                  nan                       # average number of cycles each access was blocked ((Cycle/Count))
system.l2.demandMshrMisses::cpu.inst              142                       # number of demand (read+write) MSHR misses (Count)
system.l2.demandMshrMisses::cpu.data               95                       # number of demand (read+write) MSHR misses (Count)
system.l2.demandMshrMisses::total                 237                       # number of demand (read+write) MSHR misses (Count)
system.l2.overallMshrMisses::cpu.inst             142                       # number of overall MSHR misses (Count)
system.l2.overallMshrMisses::cpu.data              95                       # number of overall MSHR misses (Count)
system.l2.overallMshrMisses::total                237                       # number of overall MSHR misses (Count)
system.l2.demandMshrMissLatency::cpu.inst      9299500                       # number of demand (read+write) MSHR miss ticks (Tick)
system.l2.demandMshrMissLatency::cpu.data      6491500                       # number of demand (read+write) MSHR miss ticks (Tick)
system.l2.demandMshrMissLatency::total       15791000                       # number of demand (read+write) MSHR miss ticks (Tick)
system.l2.overallMshrMissLatency::cpu.inst      9299500                       # number of overall MSHR miss ticks (Tick)
system.l2.overallMshrMissLatency::cpu.data      6491500                       # number of overall MSHR miss ticks (Tick)
system.l2.overallMshrMissLatency::total      15791000                       # number of overall MSHR miss ticks (Tick)
system.l2.demandMshrMissRate::cpu.inst              1                       # mshr miss ratio for demand accesses (Ratio)
system.l2.demandMshrMissRate::cpu.data              1                       # mshr miss ratio for demand accesses (Ratio)
system.l2.demandMshrMissRate::total                 1                       # mshr miss ratio for demand accesses (Ratio)
system.l2.overallMshrMissRate::cpu.inst             1                       # mshr miss ratio for overall accesses (Ratio)
system.l2.overallMshrMissRate::cpu.data             1                       # mshr miss ratio for overall accesses (Ratio)
system.l2.overallMshrMissRate::total                1                       # mshr miss ratio for overall accesses (Ratio)
system.l2.demandAvgMshrMissLatency::cpu.inst 65489.436620                       # average overall mshr miss latency ((Cycle/Count))
system.l2.demandAvgMshrMissLatency::cpu.data 68331.578947                       # average overall mshr miss latency ((Cycle/Count))
system.l2.demandAvgMshrMissLatency::total 66628.691983                       # average overall mshr miss latency ((Cycle/Count))
system.l2.overallAvgMshrMissLatency::cpu.inst 65489.436620                       # average overall mshr miss latency ((Cycle/Count))
system.l2.overallAvgMshrMissLatency::cpu.data 68331.578947                       # average overall mshr miss latency ((Cycle/Count))
system.l2.overallAvgMshrMissLatency::total 66628.691983                       # average overall mshr miss latency ((Cycle/Count))
system.l2.replacements                              0                       # number of replacements (Count)
system.l2.ReadCleanReq.misses::cpu.inst           142                       # number of ReadCleanReq misses (Count)
system.l2.ReadCleanReq.misses::total              142                       # number of ReadCleanReq misses (Count)
system.l2.ReadCleanReq.missLatency::cpu.inst     10719500                       # number of ReadCleanReq miss ticks (Tick)
system.l2.ReadCleanReq.missLatency::total     10719500                       # number of ReadCleanReq miss ticks (Tick)
system.l2.ReadCleanReq.accesses::cpu.inst          142                       # number of ReadCleanReq accesses(hits+misses) (Count)
system.l2.ReadCleanReq.accesses::total            142                       # number of ReadCleanReq accesses(hits+misses) (Count)
system.l2.ReadCleanReq.missRate::cpu.inst            1                       # miss rate for ReadCleanReq accesses (Ratio)
system.l2.ReadCleanReq.missRate::total              1                       # miss rate for ReadCleanReq accesses (Ratio)
system.l2.ReadCleanReq.avgMissLatency::cpu.inst 75489.436620                       # average ReadCleanReq miss latency ((Tick/Count))
system.l2.ReadCleanReq.avgMissLatency::total 75489.436620                       # average ReadCleanReq miss latency ((Tick/Count))
system.l2.ReadCleanReq.mshrMisses::cpu.inst          142                       # number of ReadCleanReq MSHR misses (Count)
system.l2.ReadCleanReq.mshrMisses::total          142                       # number of ReadCleanReq MSHR misses (Count)
system.l2.ReadCleanReq.mshrMissLatency::cpu.inst      9299500                       # number of ReadCleanReq MSHR miss ticks (Tick)
system.l2.ReadCleanReq.mshrMissLatency::total      9299500                       # number of ReadCleanReq MSHR miss ticks (Tick)
system.l2.ReadCleanReq.mshrMissRate::cpu.inst            1                       # mshr miss rate for ReadCleanReq accesses (Ratio)
system.l2.ReadCleanReq.mshrMissRate::total            1                       # mshr miss rate for ReadCleanReq accesses (Ratio)
system.l2.ReadCleanReq.avgMshrMissLatency::cpu.inst 65489.436620                       # average ReadCleanReq mshr miss latency ((Tick/Count))
system.l2.ReadCleanReq.avgMshrMissLatency::total 65489.436620                       # average ReadCleanReq mshr miss latency ((Tick/Count))
system.l2.ReadExReq.misses::cpu.data               43                       # number of ReadExReq misses (Count)
system.l2.ReadExReq.misses::total                  43                       # number of ReadExReq misses (Count)
system.l2.ReadExReq.missLatency::cpu.data      3240500                       # number of ReadExReq miss ticks (Tick)
system.l2.ReadExReq.missLatency::total        3240500                       # number of ReadExReq miss ticks (Tick)
system.l2.ReadExReq.accesses::cpu.data             43                       # number of ReadExReq accesses(hits+misses) (Count)
system.l2.ReadExReq.accesses::total                43                       # number of ReadExReq accesses(hits+misses) (Count)
system.l2.ReadExReq.missRate::cpu.data              1                       # miss rate for ReadExReq accesses (Ratio)
system.l2.ReadExReq.missRate::total                 1                       # miss rate for ReadExReq accesses (Ratio)
system.l2.ReadExReq.avgMissLatency::cpu.data 75360.465116                       # average ReadExReq miss latency ((Tick/Count))
system.l2.ReadExReq.avgMissLatency::total 75360.465116                       # average ReadExReq miss latency ((Tick/Count))
system.l2.ReadExReq.mshrMisses::cpu.data           43                       # number of ReadExReq MSHR misses (Count)
system.l2.ReadExReq.mshrMisses::total              43                       # number of ReadExReq MSHR misses (Count)
system.l2.ReadExReq.mshrMissLatency::cpu.data      2810500                       # number of ReadExReq MSHR miss ticks (Tick)
system.l2.ReadExReq.mshrMissLatency::total      2810500                       # number of ReadExReq MSHR miss ticks (Tick)
system.l2.ReadExReq.mshrMissRate::cpu.data            1                       # mshr miss rate for ReadExReq accesses (Ratio)
system.l2.ReadExReq.mshrMissRate::total             1                       # mshr miss rate for ReadExReq accesses (Ratio)
system.l2.ReadExReq.avgMshrMissLatency::cpu.data 65360.465116                       # average ReadExReq mshr miss latency ((Tick/Count))
system.l2.ReadExReq.avgMshrMissLatency::total 65360.465116                       # average ReadExReq mshr miss latency ((Tick/Count))
system.l2.ReadSharedReq.misses::cpu.data           52                       # number of ReadSharedReq misses (Count)
system.l2.ReadSharedReq.misses::total              52                       # number of ReadSharedReq misses (Count)
system.l2.ReadSharedReq.missLatency::cpu.data      4201000                       # number of ReadSharedReq miss ticks (Tick)
system.l2.ReadSharedReq.missLatency::total      4201000                       # number of ReadSharedReq miss ticks (Tick)
system.l2.ReadSharedReq.accesses::cpu.data           52                       # number of ReadSharedReq accesses(hits+misses) (Count)
system.l2.ReadSharedReq.accesses::total            52                       # number of ReadSharedReq accesses(hits+misses) (Count)
system.l2.ReadSharedReq.missRate::cpu.data            1                       # miss rate for ReadSharedReq accesses (Ratio)
system.l2.ReadSharedReq.missRate::total             1                       # miss rate for ReadSharedReq accesses (Ratio)
system.l2.ReadSharedReq.avgMissLatency::cpu.data 80788.461538                       # average ReadSharedReq miss latency ((Tick/Count))
system.l2.ReadSharedReq.avgMissLatency::total 80788.461538                       # average ReadSharedReq miss latency ((Tick/Count))
system.l2.ReadSharedReq.mshrMisses::cpu.data           52                       # number of ReadSharedReq MSHR misses (Count)
system.l2.ReadSharedReq.mshrMisses::total           52                       # number of ReadSharedReq MSHR misses (Count)
system.l2.ReadSharedReq.mshrMissLatency::cpu.data      3681000                       # number of ReadSharedReq MSHR miss ticks (Tick)
system.l2.ReadSharedReq.mshrMissLatency::total      3681000                       # number of ReadSharedReq MSHR miss ticks (Tick)
system.l2.ReadSharedReq.mshrMissRate::cpu.data            1                       # mshr miss rate for ReadSharedReq accesses (Ratio)
system.l2.ReadSharedReq.mshrMissRate::total            1                       # mshr miss rate for ReadSharedReq accesses (Ratio)
system.l2.ReadSharedReq.avgMshrMissLatency::cpu.data 70788.461538                       # average ReadSharedReq mshr miss latency ((Tick/Count))
system.l2.ReadSharedReq.avgMshrMissLatency::total 70788.461538                       # average ReadSharedReq mshr miss latency ((Tick/Count))
system.l2.WritebackDirty.hits::writebacks            1                       # number of WritebackDirty hits (Count)
system.l2.WritebackDirty.hits::total                1                       # number of WritebackDirty hits (Count)
system.l2.WritebackDirty.accesses::writebacks            1                       # number of WritebackDirty accesses(hits+misses) (Count)
system.l2.WritebackDirty.accesses::total            1                       # number of WritebackDirty accesses(hits+misses) (Count)
system.l2.power_state.pwrStateResidencyTicks::UNDEFINED     20290500                       # Cumulative time (in ticks) in various power states (Tick)
system.l2.tags.tagsInUse                   118.116785                       # Average ticks per tags in use ((Tick/Count))
system.l2.tags.totalRefs                          240                       # Total number of references to valid blocks. (Count)
system.l2.tags.sampledRefs                        237                       # Sample count of references to valid blocks. (Count)
system.l2.tags.avgRefs                       1.012658                       # Average number of references to valid blocks. ((Count/Count))
system.l2.tags.warmupTick                       77000                       # The tick when the warmup percentage was hit. (Tick)
system.l2.tags.occupancies::cpu.inst        67.512978                       # Average occupied blocks per tick, per requestor ((Count/Tick))
system.l2.tags.occupancies::cpu.data        50.603807                       # Average occupied blocks per tick, per requestor ((Count/Tick))
system.l2.tags.avgOccs::cpu.inst             0.002060                       # Average percentage of cache occupancy ((Ratio/Tick))
system.l2.tags.avgOccs::cpu.data             0.001544                       # Average percentage of cache occupancy ((Ratio/Tick))
system.l2.tags.avgOccs::total                0.003605                       # Average percentage of cache occupancy ((Ratio/Tick))
system.l2.tags.occupanciesTaskId::1024            237                       # Occupied blocks per task id (Count)
system.l2.tags.ageTaskId_1024::0                  118                       # Occupied blocks per task id, per block age (Count)
system.l2.tags.ageTaskId_1024::1                  119                       # Occupied blocks per task id, per block age (Count)
system.l2.tags.ratioOccsTaskId::1024         0.007233                       # Ratio of occupied blocks and all blocks, per task id (Ratio)
system.l2.tags.tagAccesses                        477                       # Number of tag accesses (Count)
system.l2.tags.dataAccesses                       477                       # Number of data accesses (Count)
system.l2.tags.power_state.pwrStateResidencyTicks::UNDEFINED     20290500                       # Cumulative time (in ticks) in various power states (Tick)
system.mem_ctrls.avgPriority_cpu.inst::samples       142.00                       # Average QoS priority value for accepted requests (Count)
system.mem_ctrls.avgPriority_cpu.data::samples        95.00                       # Average QoS priority value for accepted requests (Count)
system.mem_ctrls.priorityMinLatency      0.000000018750                       # per QoS priority minimum request to response latency (Second)
system.mem_ctrls.priorityMaxLatency      0.000000562500                       # per QoS priority maximum request to response latency (Second)
system.mem_ctrls.numReadWriteTurnArounds            0                       # Number of turnarounds from READ to WRITE (Count)
system.mem_ctrls.numWriteReadTurnArounds            0                       # Number of turnarounds from WRITE to READ (Count)
system.mem_ctrls.numStayReadState                 478                       # Number of times bus staying in READ state (Count)
system.mem_ctrls.numStayWriteState                  0                       # Number of times bus staying in WRITE state (Count)
system.mem_ctrls.readReqs                         237                       # Number of read requests accepted (Count)
system.mem_ctrls.writeReqs                          0                       # Number of write requests accepted (Count)
system.mem_ctrls.readBursts                       237                       # Number of controller read bursts, including those serviced by the write queue (Count)
system.mem_ctrls.writeBursts                        0                       # Number of controller write bursts, including those merged in the write queue (Count)
system.mem_ctrls.servicedByWrQ                      0                       # Number of controller read bursts serviced by the write queue (Count)
system.mem_ctrls.mergedWrBursts                     0                       # Number of controller write bursts merged with an existing one (Count)
system.mem_ctrls.neitherReadNorWriteReqs            0                       # Number of requests that are neither read nor write (Count)
system.mem_ctrls.avgRdQLen                       1.00                       # Average read queue length when enqueuing ((Count/Tick))
system.mem_ctrls.avgWrQLen                       0.00                       # Average write queue length when enqueuing ((Count/Tick))
system.mem_ctrls.numRdRetry                         0                       # Number of times read queue was full causing retry (Count)
system.mem_ctrls.numWrRetry                         0                       # Number of times write queue was full causing retry (Count)
system.mem_ctrls.readPktSize::0                     0                       # Read request sizes (log2) (Count)
system.mem_ctrls.readPktSize::1                     0                       # Read request sizes (log2) (Count)
system.mem_ctrls.readPktSize::2                     0                       # Read request sizes (log2) (Count)
system.mem_ctrls.readPktSize::3                     0                       # Read request sizes (log2) (Count)
system.mem_ctrls.readPktSize::4                     0                       # Read request sizes (log2) (Count)
system.mem_ctrls.readPktSize::5                   237                       # Read request sizes (log2) (Count)
system.mem_ctrls.writePktSize::0                    0                       # Write request sizes (log2) (Count)
system.mem_ctrls.writePktSize::1                    0                       # Write request sizes (log2) (Count)
system.mem_ctrls.writePktSize::2                    0                       # Write request sizes (log2) (Count)
system.mem_ctrls.writePktSize::3                    0                       # Write request sizes (log2) (Count)
system.mem_ctrls.writePktSize::4                    0                       # Write request sizes (log2) (Count)
system.mem_ctrls.writePktSize::5                    0                       # Write request sizes (log2) (Count)
system.mem_ctrls.rdQLenPdf::0                     237                       # What read queue length does an incoming req see (Count)
system.mem_ctrls.rdQLenPdf::1                       0                       # What read queue length does an incoming req see (Count)
system.mem_ctrls.rdQLenPdf::2                       0                       # What read queue length does an incoming req see (Count)
system.mem_ctrls.rdQLenPdf::3                       0                       # What read queue length does an incoming req see (Count)
system.mem_ctrls.rdQLenPdf::4                       0                       # What read queue length does an incoming req see (Count)
system.mem_ctrls.rdQLenPdf::5                       0                       # What read queue length does an incoming req see (Count)
system.mem_ctrls.rdQLenPdf::6                       0                       # What read queue length does an incoming req see (Count)
system.mem_ctrls.rdQLenPdf::7                       0                       # What read queue length does an incoming req see (Count)
system.mem_ctrls.rdQLenPdf::8                       0                       # What read queue length does an incoming req see (Count)
system.mem_ctrls.rdQLenPdf::9                       0                       # What read queue length does an incoming req see (Count)
system.mem_ctrls.rdQLenPdf::10                      0                       # What read queue length does an incoming req see (Count)
system.mem_ctrls.rdQLenPdf::11                      0                       # What read queue length does an incoming req see (Count)
system.mem_ctrls.rdQLenPdf::12                      0                       # What read queue length does an incoming req see (Count)
system.mem_ctrls.rdQLenPdf::13                      0                       # What read queue length does an incoming req see (Count)
system.mem_ctrls.rdQLenPdf::14                      0                       # What read queue length does an incoming req see (Count)
system.mem_ctrls.rdQLenPdf::15                      0                       # What read queue length does an incoming req see (Count)
system.mem_ctrls.rdQLenPdf::16                      0                       # What read queue length does an incoming req see (Count)
system.mem_ctrls.rdQLenPdf::17                      0                       # What read queue length does an incoming req see (Count)
system.mem_ctrls.rdQLenPdf::18                      0                       # What read queue length does an incoming req see (Count)
system.mem_ctrls.rdQLenPdf::19                      0                       # What read queue length does an incoming req see (Count)
system.mem_ctrls.rdQLenPdf::20                      0                       # What read queue length does an incoming req see (Count)
system.mem_ctrls.rdQLenPdf::21                      0                       # What read queue length does an incoming req see (Count)
system.mem_ctrls.rdQLenPdf::22                      0                       # What read queue length does an incoming req see (Count)
system.mem_ctrls.rdQLenPdf::23                      0                       # What read queue length does an incoming req see (Count)
system.mem_ctrls.rdQLenPdf::24                      0                       # What read queue length does an incoming req see (Count)
system.mem_ctrls.rdQLenPdf::25                      0                       # What read queue length does an incoming req see (Count)
system.mem_ctrls.rdQLenPdf::26                      0                       # What read queue length does an incoming req see (Count)
system.mem_ctrls.rdQLenPdf::27                      0                       # What read queue length does an incoming req see (Count)
system.mem_ctrls.rdQLenPdf::28                      0                       # What read queue length does an incoming req see (Count)
system.mem_ctrls.rdQLenPdf::29                      0                       # What read queue length does an incoming req see (Count)
system.mem_ctrls.rdQLenPdf::30                      0                       # What read queue length does an incoming req see (Count)
system.mem_ctrls.rdQLenPdf::31                      0                       # What read queue length does an incoming req see (Count)
system.mem_ctrls.wrQLenPdf::0                       0                       # What write queue length does an incoming req see (Count)
system.mem_ctrls.wrQLenPdf::1                       0                       # What write queue length does an incoming req see (Count)
system.mem_ctrls.wrQLenPdf::2                       0                       # What write queue length does an incoming req see (Count)
system.mem_ctrls.wrQLenPdf::3                       0                       # What write queue length does an incoming req see (Count)
system.mem_ctrls.wrQLenPdf::4                       0                       # What write queue length does an incoming req see (Count)
system.mem_ctrls.wrQLenPdf::5                       0                       # What write queue length does an incoming req see (Count)
system.mem_ctrls.wrQLenPdf::6                       0                       # What write queue length does an incoming req see (Count)
system.mem_ctrls.wrQLenPdf::7                       0                       # What write queue length does an incoming req see (Count)
system.mem_ctrls.wrQLenPdf::8                       0                       # What write queue length does an incoming req see (Count)
system.mem_ctrls.wrQLenPdf::9                       0                       # What write queue length does an incoming req see (Count)
system.mem_ctrls.wrQLenPdf::10                      0                       # What write queue length does an incoming req see (Count)
system.mem_ctrls.wrQLenPdf::11                      0                       # What write queue length does an incoming req see (Count)
system.mem_ctrls.wrQLenPdf::12                      0                       # What write queue length does an incoming req see (Count)
system.mem_ctrls.wrQLenPdf::13                      0                       # What write queue length does an incoming req see (Count)
system.mem_ctrls.wrQLenPdf::14                      0                       # What write queue length does an incoming req see (Count)
system.mem_ctrls.wrQLenPdf::15                      0                       # What write queue length does an incoming req see (Count)
system.mem_ctrls.wrQLenPdf::16                      0                       # What write queue length does an incoming req see (Count)
system.mem_ctrls.wrQLenPdf::17                      0                       # What write queue length does an incoming req see (Count)
system.mem_ctrls.wrQLenPdf::18                      0                       # What write queue length does an incoming req see (Count)
system.mem_ctrls.wrQLenPdf::19                      0                       # What write queue length does an incoming req see (Count)
system.mem_ctrls.wrQLenPdf::20                      0                       # What write queue length does an incoming req see (Count)
system.mem_ctrls.wrQLenPdf::21                      0                       # What write queue length does an incoming req see (Count)
system.mem_ctrls.wrQLenPdf::22                      0                       # What write queue length does an incoming req see (Count)
system.mem_ctrls.wrQLenPdf::23                      0                       # What write queue length does an incoming req see (Count)
system.mem_ctrls.wrQLenPdf::24                      0                       # What write queue length does an incoming req see (Count)
system.mem_ctrls.wrQLenPdf::25                      0                       # What write queue length does an incoming req see (Count)
system.mem_ctrls.wrQLenPdf::26                      0                       # What write queue length does an incoming req see (Count)
system.mem_ctrls.wrQLenPdf::27                      0                       # What write queue length does an incoming req see (Count)
system.mem_ctrls.wrQLenPdf::28                      0                       # What write queue length does an incoming req see (Count)
system.mem_ctrls.wrQLenPdf::29                      0                       # What write queue length does an incoming req see (Count)
system.mem_ctrls.wrQLenPdf::30                      0                       # What write queue length does an incoming req see (Count)
system.mem_ctrls.wrQLenPdf::31                      0                       # What write queue length does an incoming req see (Count)
system.mem_ctrls.wrQLenPdf::32                      0                       # What write queue length does an incoming req see (Count)
system.mem_ctrls.wrQLenPdf::33                      0                       # What write queue length does an incoming req see (Count)
system.mem_ctrls.wrQLenPdf::34                      0                       # What write queue length does an incoming req see (Count)
system.mem_ctrls.wrQLenPdf::35                      0                       # What write queue length does an incoming req see (Count)
system.mem_ctrls.wrQLenPdf::36                      0                       # What write queue length does an incoming req see (Count)
system.mem_ctrls.wrQLenPdf::37                      0                       # What write queue length does an incoming req see (Count)
system.mem_ctrls.wrQLenPdf::38                      0                       # What write queue length does an incoming req see (Count)
system.mem_ctrls.wrQLenPdf::39                      0                       # What write queue length does an incoming req see (Count)
system.mem_ctrls.wrQLenPdf::40                      0                       # What write queue length does an incoming req see (Count)
system.mem_ctrls.wrQLenPdf::41                      0                       # What write queue length does an incoming req see (Count)
system.mem_ctrls.wrQLenPdf::42                      0                       # What write queue length does an incoming req see (Count)
system.mem_ctrls.wrQLenPdf::43                      0                       # What write queue length does an incoming req see (Count)
system.mem_ctrls.wrQLenPdf::44                      0                       # What write queue length does an incoming req see (Count)
system.mem_ctrls.wrQLenPdf::45                      0                       # What write queue length does an incoming req see (Count)
system.mem_ctrls.wrQLenPdf::46                      0                       # What write queue length does an incoming req see (Count)
system.mem_ctrls.wrQLenPdf::47                      0                       # What write queue length does an incoming req see (Count)
system.mem_ctrls.wrQLenPdf::48                      0                       # What write queue length does an incoming req see (Count)
system.mem_ctrls.wrQLenPdf::49                      0                       # What write queue length does an incoming req see (Count)
system.mem_ctrls.wrQLenPdf::50                      0                       # What write queue length does an incoming req see (Count)
system.mem_ctrls.wrQLenPdf::51                      0                       # What write queue length does an incoming req see (Count)
system.mem_ctrls.wrQLenPdf::52                      0                       # What write queue length does an incoming req see (Count)
system.mem_ctrls.wrQLenPdf::53                      0                       # What write queue length does an incoming req see (Count)
system.mem_ctrls.wrQLenPdf::54                      0                       # What write queue length does an incoming req see (Count)
system.mem_ctrls.wrQLenPdf::55                      0                       # What write queue length does an incoming req see (Count)
system.mem_ctrls.wrQLenPdf::56                      0                       # What write queue length does an incoming req see (Count)
system.mem_ctrls.wrQLenPdf::57                      0                       # What write queue length does an incoming req see (Count)
system.mem_ctrls.wrQLenPdf::58                      0                       # What write queue length does an incoming req see (Count)
system.mem_ctrls.wrQLenPdf::59                      0                       # What write queue length does an incoming req see (Count)
system.mem_ctrls.wrQLenPdf::60                      0                       # What write queue length does an incoming req see (Count)
system.mem_ctrls.wrQLenPdf::61                      0                       # What write queue length does an incoming req see (Count)
system.mem_ctrls.wrQLenPdf::62                      0                       # What write queue length does an incoming req see (Count)
system.mem_ctrls.wrQLenPdf::63                      0                       # What write queue length does an incoming req see (Count)
system.mem_ctrls.bytesReadWrQ                       0                       # Total number of bytes read from write queue (Byte)
system.mem_ctrls.bytesReadSys                    7584                       # Total read bytes from the system interface side (Byte)
[...]
system.mem_ctrls.dram.perBankWrBursts::6            0                       # Per bank write bursts (Count)
system.mem_ctrls.dram.perBankWrBursts::7            0                       # Per bank write bursts (Count)
system.mem_ctrls.dram.perBankWrBursts::8            0                       # Per bank write bursts (Count)
system.mem_ctrls.dram.perBankWrBursts::9            0                       # Per bank write bursts (Count)
system.mem_ctrls.dram.perBankWrBursts::10            0                       # Per bank write bursts (Count)
system.mem_ctrls.dram.perBankWrBursts::11            0                       # Per bank write bursts (Count)
system.mem_ctrls.dram.perBankWrBursts::12            0                       # Per bank write bursts (Count)
system.mem_ctrls.dram.perBankWrBursts::13            0                       # Per bank write bursts (Count)
system.mem_ctrls.dram.perBankWrBursts::14            0                       # Per bank write bursts (Count)
system.mem_ctrls.dram.perBankWrBursts::15            0                       # Per bank write bursts (Count)
system.mem_ctrls.dram.totQLat                 1668000                       # Total ticks spent queuing (Tick)
system.mem_ctrls.dram.totBusLat               1185000                       # Total ticks spent in databus transfers (Tick)
system.mem_ctrls.dram.totMemAccLat            6111750                       # Total ticks spent from burst creation until serviced by the DRAM (Tick)
system.mem_ctrls.dram.avgQLat                 7037.97                       # Average queueing delay per DRAM burst ((Tick/Count))
system.mem_ctrls.dram.avgBusLat               5000.00                       # Average bus latency per DRAM burst ((Tick/Count))
system.mem_ctrls.dram.avgMemAccLat           25787.97                       # Average memory access latency per DRAM burst ((Tick/Count))
system.mem_ctrls.dram.readRowHits                 174                       # Number of row buffer hits during reads (Count)
system.mem_ctrls.dram.writeRowHits                  0                       # Number of row buffer hits during writes (Count)
system.mem_ctrls.dram.readRowHitRate            73.42                       # Row buffer hit rate for reads (Ratio)
system.mem_ctrls.dram.writeRowHitRate             nan                       # Row buffer hit rate for writes (Ratio)
system.mem_ctrls.dram.bytesPerActivate::samples           50                       # Bytes accessed per row activation (Byte)
system.mem_ctrls.dram.bytesPerActivate::mean   239.360000                       # Bytes accessed per row activation (Byte)
system.mem_ctrls.dram.bytesPerActivate::gmean   161.602778                       # Bytes accessed per row activation (Byte)
system.mem_ctrls.dram.bytesPerActivate::stdev   244.922792                       # Bytes accessed per row activation (Byte)
system.mem_ctrls.dram.bytesPerActivate::0-127           18     36.00%     36.00% # Bytes accessed per row activation (Byte)
system.mem_ctrls.dram.bytesPerActivate::128-255           13     26.00%     62.00% # Bytes accessed per row activation (Byte)
system.mem_ctrls.dram.bytesPerActivate::256-383            8     16.00%     78.00% # Bytes accessed per row activation (Byte)
system.mem_ctrls.dram.bytesPerActivate::384-511            5     10.00%     88.00% # Bytes accessed per row activation (Byte)
system.mem_ctrls.dram.bytesPerActivate::512-639            2      4.00%     92.00% # Bytes accessed per row activation (Byte)
system.mem_ctrls.dram.bytesPerActivate::640-767            1      2.00%     94.00% # Bytes accessed per row activation (Byte)
system.mem_ctrls.dram.bytesPerActivate::1024-1151            3      6.00%    100.00% # Bytes accessed per row activation (Byte)
system.mem_ctrls.dram.bytesPerActivate::total           50                       # Bytes accessed per row activation (Byte)
system.mem_ctrls.dram.bytesRead                 15168                       # Total number of bytes read from DRAM (Byte)
system.mem_ctrls.dram.bytesWritten                  0                       # Total number of bytes written to DRAM (Byte)
system.mem_ctrls.dram.avgRdBW              747.541953                       # Average DRAM read bandwidth in MiBytes/s ((Byte/Second))
system.mem_ctrls.dram.avgWrBW                       0                       # Average DRAM write bandwidth in MiBytes/s ((Byte/Second))
system.mem_ctrls.dram.peakBW                 12800.00                       # Theoretical peak bandwidth in MiByte/s ((Byte/Second))
system.mem_ctrls.dram.busUtil                    5.84                       # Data bus utilization in percentage (Ratio)
system.mem_ctrls.dram.busUtilRead                5.84                       # Data bus utilization in percentage for reads (Ratio)
system.mem_ctrls.dram.busUtilWrite               0.00                       # Data bus utilization in percentage for writes (Ratio)
system.mem_ctrls.dram.pageHitRate               73.42                       # Row buffer hit rate, read and write combined (Ratio)
system.mem_ctrls.dram.power_state.pwrStateResidencyTicks::UNDEFINED     20290500                       # Cumulative time (in ticks) in various power states (Tick)
system.mem_ctrls.dram.rank0.actEnergy          249900                       # Energy for activate commands per rank (pJ) (Joule)
system.mem_ctrls.dram.rank0.preEnergy          113850                       # Energy for precharge commands per rank (pJ) (Joule)
system.mem_ctrls.dram.rank0.readEnergy        1063860                       # Energy for read commands per rank (pJ) (Joule)
system.mem_ctrls.dram.rank0.writeEnergy             0                       # Energy for write commands per rank (pJ) (Joule)
system.mem_ctrls.dram.rank0.refreshEnergy 1229280.000000                       # Energy for refresh commands per rank (pJ) (Joule)
system.mem_ctrls.dram.rank0.actBackEnergy      9215760                       # Energy for active background per rank (pJ) (Joule)
system.mem_ctrls.dram.rank0.preBackEnergy        31200                       # Energy for precharge background per rank (pJ) (Joule)
system.mem_ctrls.dram.rank0.actPowerDownEnergy            0                       # Energy for active power-down per rank (pJ) (Joule)
system.mem_ctrls.dram.rank0.prePowerDownEnergy            0                       # Energy for precharge power-down per rank (pJ) (Joule)
system.mem_ctrls.dram.rank0.selfRefreshEnergy            0                       # Energy for self refresh per rank (pJ) (Joule)
system.mem_ctrls.dram.rank0.totalEnergy      11903850                       # Total energy per rank (pJ) (Joule)
system.mem_ctrls.dram.rank0.averagePower   586.671102                       # Core power per rank (mW) (Watt)
system.mem_ctrls.dram.rank0.totalIdleTime            0                       # Total Idle time Per DRAM Rank (Tick)
system.mem_ctrls.dram.rank0.pwrStateTime::IDLE        11500                       # Time in different power states (Tick)
system.mem_ctrls.dram.rank0.pwrStateTime::REF       520000                       # Time in different power states (Tick)
system.mem_ctrls.dram.rank0.pwrStateTime::SREF            0                       # Time in different power states (Tick)
system.mem_ctrls.dram.rank0.pwrStateTime::PRE_PDN            0                       # Time in different power states (Tick)
system.mem_ctrls.dram.rank0.pwrStateTime::ACT     19759000                       # Time in different power states (Tick)
system.mem_ctrls.dram.rank0.pwrStateTime::ACT_PDN            0                       # Time in different power states (Tick)
system.mem_ctrls.dram.rank1.actEnergy          199920                       # Energy for activate commands per rank (pJ) (Joule)
system.mem_ctrls.dram.rank1.preEnergy           75900                       # Energy for precharge commands per rank (pJ) (Joule)
system.mem_ctrls.dram.rank1.readEnergy         628320                       # Energy for read commands per rank (pJ) (Joule)
system.mem_ctrls.dram.rank1.writeEnergy             0                       # Energy for write commands per rank (pJ) (Joule)
system.mem_ctrls.dram.rank1.refreshEnergy 1229280.000000                       # Energy for refresh commands per rank (pJ) (Joule)
system.mem_ctrls.dram.rank1.actBackEnergy      8456520                       # Energy for active background per rank (pJ) (Joule)
system.mem_ctrls.dram.rank1.preBackEnergy       670560                       # Energy for precharge background per rank (pJ) (Joule)
system.mem_ctrls.dram.rank1.actPowerDownEnergy            0                       # Energy for active power-down per rank (pJ) (Joule)
system.mem_ctrls.dram.rank1.prePowerDownEnergy            0                       # Energy for precharge power-down per rank (pJ) (Joule)
system.mem_ctrls.dram.rank1.selfRefreshEnergy            0                       # Energy for self refresh per rank (pJ) (Joule)
system.mem_ctrls.dram.rank1.totalEnergy      11260500                       # Total energy per rank (pJ) (Joule)
system.mem_ctrls.dram.rank1.averagePower   554.964146                       # Core power per rank (mW) (Watt)
system.mem_ctrls.dram.rank1.totalIdleTime            0                       # Total Idle time Per DRAM Rank (Tick)
system.mem_ctrls.dram.rank1.pwrStateTime::IDLE      1689750                       # Time in different power states (Tick)
system.mem_ctrls.dram.rank1.pwrStateTime::REF       520000                       # Time in different power states (Tick)
system.mem_ctrls.dram.rank1.pwrStateTime::SREF            0                       # Time in different power states (Tick)
system.mem_ctrls.dram.rank1.pwrStateTime::PRE_PDN            0                       # Time in different power states (Tick)
system.mem_ctrls.dram.rank1.pwrStateTime::ACT     18080750                       # Time in different power states (Tick)
system.mem_ctrls.dram.rank1.pwrStateTime::ACT_PDN            0                       # Time in different power states (Tick)
system.mem_ctrls.power_state.pwrStateResidencyTicks::UNDEFINED     20290500                       # Cumulative time (in ticks) in various power states (Tick)
system.membus.transDist::ReadResp                 194                       # Transaction distribution (Count)
system.membus.transDist::ReadExReq                 43                       # Transaction distribution (Count)
system.membus.transDist::ReadExResp                43                       # Transaction distribution (Count)
system.membus.transDist::ReadSharedReq            194                       # Transaction distribution (Count)
system.membus.pktCount_system.l2.mem_side_port::system.mem_ctrls.port          474                       # Packet count per connected requestor and responder (Count)
system.membus.pktCount_system.l2.mem_side_port::total          474                       # Packet count per connected requestor and responder (Count)
system.membus.pktCount::total                     474                       # Packet count per connected requestor and responder (Count)
system.membus.pktSize_system.l2.mem_side_port::system.mem_ctrls.port         7584                       # Cumulative packet size per connected requestor and responder (Byte)
system.membus.pktSize_system.l2.mem_side_port::total         7584                       # Cumulative packet size per connected requestor and responder (Byte)
system.membus.pktSize::total                     7584                       # Cumulative packet size per connected requestor and responder (Byte)
system.membus.snoops                                0                       # Total snoops (Count)
system.membus.snoopTraffic                          0                       # Total snoop traffic (Byte)
system.membus.snoopFanout::samples                237                       # Request fanout histogram (Count)
system.membus.snoopFanout::mean                     0                       # Request fanout histogram (Count)
system.membus.snoopFanout::stdev                    0                       # Request fanout histogram (Count)
system.membus.snoopFanout::underflows               0      0.00%      0.00% # Request fanout histogram (Count)
system.membus.snoopFanout::0                      237    100.00%    100.00% # Request fanout histogram (Count)
system.membus.snoopFanout::1                        0      0.00%    100.00% # Request fanout histogram (Count)
system.membus.snoopFanout::overflows                0      0.00%    100.00% # Request fanout histogram (Count)
system.membus.snoopFanout::min_value                0                       # Request fanout histogram (Count)
system.membus.snoopFanout::max_value                0                       # Request fanout histogram (Count)
system.membus.snoopFanout::total                  237                       # Request fanout histogram (Count)
system.membus.power_state.pwrStateResidencyTicks::UNDEFINED     20290500                       # Cumulative time (in ticks) in various power states (Tick)
system.membus.reqLayer2.occupancy              237500                       # Layer occupancy (ticks) (Tick)
system.membus.reqLayer2.utilization               0.0                       # Layer utilization (Ratio)
system.membus.respLayer1.occupancy             791250                       # Layer occupancy (ticks) (Tick)
system.membus.respLayer1.utilization              0.0                       # Layer utilization (Ratio)
system.membus.snoop_filter.totRequests            237                       # Total number of requests made to the snoop filter. (Count)
system.membus.snoop_filter.hitSingleRequests            0                       # Number of requests hitting in the snoop filter with a single holder of the requested data. (Count)
system.membus.snoop_filter.hitMultiRequests            0                       # Number of requests hitting in the snoop filter with multiple (>1) holders of the requested data. (Count)
system.membus.snoop_filter.totSnoops                0                       # Total number of snoops made to the snoop filter. (Count)
system.membus.snoop_filter.hitSingleSnoops            0                       # Number of snoops hitting in the snoop filter with a single holder of the requested data. (Count)
system.membus.snoop_filter.hitMultiSnoops            0                       # Number of snoops hitting in the snoop filter with multiple (>1) holders of the requested data. (Count)
system.tol2bus.transDist::ReadResp                194                       # Transaction distribution (Count)
system.tol2bus.transDist::WritebackDirty            1                       # Transaction distribution (Count)
system.tol2bus.transDist::CleanEvict                2                       # Transaction distribution (Count)
system.tol2bus.transDist::ReadExReq                43                       # Transaction distribution (Count)
system.tol2bus.transDist::ReadExResp               43                       # Transaction distribution (Count)
system.tol2bus.transDist::ReadCleanReq            142                       # Transaction distribution (Count)
system.tol2bus.transDist::ReadSharedReq            52                       # Transaction distribution (Count)
system.tol2bus.pktCount_system.cpu.icache.mem_side_port::system.l2.cpu_side_port          284                       # Packet count per connected requestor and responder (Count)
system.tol2bus.pktCount_system.cpu.dcache.mem_side_port::system.l2.cpu_side_port          193                       # Packet count per connected requestor and responder (Count)
system.tol2bus.pktCount::total                    477                       # Packet count per connected requestor and responder (Count)
system.tol2bus.pktSize_system.cpu.icache.mem_side_port::system.l2.cpu_side_port         4544                       # Cumulative packet size per connected requestor and responder (Byte)
system.tol2bus.pktSize_system.cpu.dcache.mem_side_port::system.l2.cpu_side_port         3072                       # Cumulative packet size per connected requestor and responder (Byte)
system.tol2bus.pktSize::total                    7616                       # Cumulative packet size per connected requestor and responder (Byte)
system.tol2bus.snoops                               0                       # Total snoops (Count)
system.tol2bus.snoopTraffic                         0                       # Total snoop traffic (Byte)
system.tol2bus.snoopFanout::samples               237                       # Request fanout histogram (Count)
system.tol2bus.snoopFanout::mean                    0                       # Request fanout histogram (Count)
system.tol2bus.snoopFanout::stdev                   0                       # Request fanout histogram (Count)
system.tol2bus.snoopFanout::underflows              0      0.00%      0.00% # Request fanout histogram (Count)
system.tol2bus.snoopFanout::0                     237    100.00%    100.00% # Request fanout histogram (Count)
system.tol2bus.snoopFanout::1                       0      0.00%    100.00% # Request fanout histogram (Count)
system.tol2bus.snoopFanout::2                       0      0.00%    100.00% # Request fanout histogram (Count)
system.tol2bus.snoopFanout::3                       0      0.00%    100.00% # Request fanout histogram (Count)
system.tol2bus.snoopFanout::4                       0      0.00%    100.00% # Request fanout histogram (Count)
system.tol2bus.snoopFanout::overflows               0      0.00%    100.00% # Request fanout histogram (Count)
system.tol2bus.snoopFanout::min_value               0                       # Request fanout histogram (Count)
system.tol2bus.snoopFanout::max_value               0                       # Request fanout histogram (Count)
system.tol2bus.snoopFanout::total                 237                       # Request fanout histogram (Count)
system.tol2bus.power_state.pwrStateResidencyTicks::UNDEFINED     20290500                       # Cumulative time (in ticks) in various power states (Tick)
system.tol2bus.reqLayer0.occupancy             120500                       # Layer occupancy (ticks) (Tick)
system.tol2bus.reqLayer0.utilization              0.0                       # Layer utilization (Ratio)
system.tol2bus.respLayer0.occupancy            142000                       # Layer occupancy (ticks) (Tick)
system.tol2bus.respLayer0.utilization             0.0                       # Layer utilization (Ratio)
system.tol2bus.respLayer1.occupancy             95000                       # Layer occupancy (ticks) (Tick)
system.tol2bus.respLayer1.utilization             0.0                       # Layer utilization (Ratio)
system.tol2bus.snoop_filter.totRequests           240                       # Total number of requests made to the snoop filter. (Count)
system.tol2bus.snoop_filter.hitSingleRequests            3                       # Number of requests hitting in the snoop filter with a single holder of the requested data. (Count)
system.tol2bus.snoop_filter.hitMultiRequests            0                       # Number of requests hitting in the snoop filter with multiple (>1) holders of the requested data. (Count)
system.tol2bus.snoop_filter.totSnoops               0                       # Total number of snoops made to the snoop filter. (Count)
system.tol2bus.snoop_filter.hitSingleSnoops            0                       # Number of snoops hitting in the snoop filter with a single holder of the requested data. (Count)
system.tol2bus.snoop_filter.hitMultiSnoops            0                       # Number of snoops hitting in the snoop filter with multiple (>1) holders of the requested data. (Count)
system.voltage_domain.voltage                       1                       # Voltage in Volts (Volt)
system.workload.inst.arm                            0                       # number of arm instructions executed (Count)
system.workload.inst.quiesce                        0                       # number of quiesce instructions executed (Count)

---------- End Simulation Statistics   ----------
